electric-grid/physical/synthetic/illini200/illinois200.m
% Case saved by PowerWorld Simulator, version 20 Beta, build date March 13, 2017
function mpc = Illinois200
mpc.version = '2';
mpc.baseMVA =  100.00;

%% bus data 
mpc.bus = [
1	1	0.00	0.00	0.00	0.00	1	0.9987253	-36.484845	115.00	1	1.100	0.900	19.91	0.00	0	0
2	1	10.95	3.12	0.00	0.00	1	0.9985471	-36.504646	115.00	1	1.100	0.900	19.91	0.00	0	0
3	1	0.00	0.00	0.00	0.00	1	1.0103316	-38.186132	115.00	1	1.100	0.900	19.91	0.00	0	0
4	1	2.72	0.77	0.00	0.00	1	1.0102908	-38.190918	115.00	1	1.100	0.900	19.91	0.00	0	0
5	1	0.00	0.00	0.00	0.00	1	1.0231747	-38.814350	115.00	1	1.100	0.900	19.91	0.00	0	0
6	1	12.50	3.56	0.00	0.00	1	1.0229736	-38.835837	115.00	1	1.100	0.900	19.91	0.00	0	0
7	1	0.00	0.00	0.00	0.00	1	0.9895163	-37.640747	115.00	1	1.100	0.900	19.91	0.00	0	0
8	1	35.20	10.03	0.00	0.00	1	0.9889666	-37.702748	115.00	1	1.100	0.900	19.91	0.00	0	0
9	1	0.00	0.00	0.00	0.00	1	0.9939302	-37.023795	115.00	1	1.100	0.900	19.91	0.00	0	0
10	1	63.29	18.04	0.00	0.00	1	0.9928336	-37.163436	115.00	1	1.100	0.900	19.91	0.00	0	0
11	1	0.00	0.00	0.00	0.00	1	1.0349069	-35.627278	115.00	1	1.100	0.900	19.91	0.00	0	0
12	1	0.49	0.14	0.00	0.00	1	1.0348996	-35.628157	115.00	1	1.100	0.900	19.91	0.00	0	0
13	1	4.04	1.15	0.00	0.00	1	1.0348425	-35.634698	115.00	1	1.100	0.900	19.91	0.00	0	0
14	1	0.00	0.00	0.00	0.00	1	1.0331195	-34.381983	230.00	1	1.100	0.900	19.91	0.00	0	0
15	1	0.00	0.00	0.00	30.00	1	1.0355891	-35.497711	115.00	1	1.100	0.900	19.91	0.00	0	0
16	1	71.70	20.44	0.00	0.00	1	1.0345716	-35.614380	115.00	1	1.100	0.900	19.91	0.00	0	0
17	1	0.00	0.00	0.00	0.00	1	1.0011339	-39.161689	115.00	1	1.100	0.900	19.91	0.00	0	0
18	1	1.14	0.33	0.00	0.00	1	1.0011154	-39.164163	115.00	1	1.100	0.900	19.91	0.00	0	0
19	1	1.23	0.35	0.00	0.00	1	1.0011168	-39.163754	115.00	1	1.100	0.900	19.91	0.00	0	0
20	1	1.81	0.52	0.00	0.00	1	1.0011054	-39.164968	115.00	1	1.100	0.900	19.91	0.00	0	0
21	1	7.38	2.10	0.00	0.00	1	1.0010054	-39.177564	115.00	1	1.100	0.900	19.91	0.00	0	0
22	1	0.00	0.00	0.00	0.00	1	1.0344601	-35.650737	115.00	1	1.100	0.900	19.91	0.00	0	0
23	1	2.26	0.64	0.00	0.00	1	1.0344265	-35.654423	115.00	1	1.100	0.900	19.91	0.00	0	0
24	1	3.84	1.09	0.00	0.00	1	1.0344021	-35.656640	115.00	1	1.100	0.900	19.91	0.00	0	0
25	1	0.00	0.00	0.00	0.00	1	1.0257099	-39.097350	115.00	1	1.100	0.900	19.91	0.00	0	0
26	1	2.13	0.61	0.00	0.00	1	1.0256791	-39.100707	115.00	1	1.100	0.900	19.91	0.00	0	0
27	1	0.00	0.00	0.00	0.00	1	1.0350538	-35.782451	115.00	1	1.100	0.900	19.91	0.00	0	0
28	1	3.74	1.07	0.00	0.00	1	1.0349918	-35.790040	115.00	1	1.100	0.900	19.91	0.00	0	0
29	1	0.00	0.00	0.00	0.00	1	0.9988561	-36.226215	115.00	1	1.100	0.900	19.91	0.00	0	0
30	1	87.62	24.97	0.00	0.00	1	0.9974594	-36.374027	115.00	1	1.100	0.900	19.91	0.00	0	0
31	1	0.00	0.00	0.00	0.00	1	0.9993814	-39.562360	115.00	1	1.100	0.900	19.91	0.00	0	0
32	1	0.70	0.20	0.00	0.00	1	0.9993689	-39.563847	115.00	1	1.100	0.900	19.91	0.00	0	0
33	1	8.82	2.51	0.00	0.00	1	0.9992433	-39.580004	115.00	1	1.100	0.900	19.91	0.00	0	0
34	1	0.00	0.00	0.00	0.00	1	1.0179260	-36.929680	115.00	1	1.100	0.900	19.91	0.00	0	0
35	1	33.26	9.48	0.00	0.00	1	1.0173950	-36.994263	115.00	1	1.100	0.900	19.91	0.00	0	0
36	1	0.00	0.00	0.00	0.00	1	1.0059315	-39.693345	115.00	1	1.100	0.900	19.91	0.00	0	0
37	1	4.89	1.39	0.00	0.00	1	1.0058586	-39.702124	115.00	1	1.100	0.900	19.91	0.00	0	0
38	1	40.81	11.63	0.00	0.00	1	1.0052524	-39.770111	115.00	1	1.100	0.900	19.91	0.00	0	0
39	1	11.86	3.38	0.00	0.00	1	0.9988683	-39.913488	115.00	1	1.100	0.900	19.91	0.00	0	0
40	1	3.28	0.93	0.00	0.00	1	0.9988227	-39.919055	115.00	1	1.100	0.900	19.91	0.00	0	0
41	1	61.87	17.63	0.00	0.00	1	1.0150375	-41.826757	115.00	1	1.100	0.900	19.91	0.00	0	0
42	1	17.01	4.85	0.00	0.00	1	1.0070583	-38.646358	115.00	1	1.100	0.900	19.91	0.00	0	0
43	1	3.09	0.88	0.00	0.00	1	0.9943791	-38.626607	115.00	1	1.100	0.900	19.91	0.00	0	0
44	1	6.65	1.89	0.00	0.00	1	1.0049040	-38.490044	115.00	1	1.100	0.900	19.91	0.00	0	0
45	1	0.00	0.00	0.00	0.00	1	1.0277558	-33.752015	230.00	1	1.100	0.900	19.91	0.00	0	0
46	1	8.68	2.47	0.00	0.00	1	1.0252088	-34.633271	115.00	1	1.100	0.900	19.91	0.00	0	0
47	1	2.47	0.71	0.00	0.00	1	1.0316417	-35.017317	115.00	1	1.100	0.900	19.91	0.00	0	0
48	1	2.87	0.82	0.00	0.00	1	1.0204693	-39.106063	115.00	1	1.100	0.900	19.91	0.00	0	0
49	2	0.00	0.00	0.00	0.00	1	1.0322808	-37.826268	13.80	1	1.100	0.900	19.91	0.00	0	0
50	2	0.00	0.00	0.00	0.00	1	1.0295607	-38.132551	13.80	1	1.100	0.900	19.91	0.00	0	0
51	2	0.00	0.00	0.00	0.00	1	1.0338254	-37.629606	13.80	1	1.100	0.900	19.91	0.00	0	0
52	2	0.00	0.00	0.00	0.00	1	1.0290833	-38.192290	13.80	1	1.100	0.900	19.91	0.00	0	0
53	2	0.00	0.00	0.00	0.00	1	1.0400000	-36.320835	13.80	1	1.100	0.900	19.91	0.00	0	0
54	1	4.27	1.22	0.00	0.00	1	1.0279093	-35.518225	115.00	1	1.100	0.900	19.91	0.00	0	0
55	1	0.00	0.00	0.00	0.00	1	1.0247171	-34.507306	230.00	1	1.100	0.900	19.91	0.00	0	0
56	1	1.79	0.51	0.00	0.00	1	1.0231808	-34.882556	115.00	1	1.100	0.900	19.91	0.00	0	0
57	1	4.52	1.29	0.00	0.00	1	1.0055562	-38.958227	115.00	1	1.100	0.900	19.91	0.00	0	0
58	1	5.79	1.65	0.00	0.00	1	1.0130443	-39.471071	115.00	1	1.100	0.900	19.91	0.00	0	0
59	1	7.02	2.00	0.00	0.00	1	0.9916953	-39.285283	115.00	1	1.100	0.900	19.91	0.00	0	0
60	1	5.63	1.60	0.00	0.00	1	1.0135099	-35.185033	115.00	1	1.100	0.900	19.91	0.00	0	0
61	1	28.14	8.02	0.00	0.00	1	1.0213539	-35.141536	115.00	1	1.100	0.900	19.91	0.00	0	0
62	1	34.29	9.77	0.00	0.00	1	1.0013273	-39.623617	115.00	1	1.100	0.900	19.91	0.00	0	0
63	1	12.79	3.64	0.00	0.00	1	1.0275690	-37.020582	115.00	1	1.100	0.900	19.91	0.00	0	0
64	1	0.00	0.00	0.00	0.00	1	1.0291107	-38.087884	115.00	1	1.100	0.900	19.91	0.00	0	0
65	2	0.00	0.00	0.00	0.00	1	1.0400000	-34.796049	13.80	1	1.100	0.900	19.91	0.00	0	0
66	1	0.00	0.00	0.00	0.00	1	1.0357844	-34.438374	115.00	1	1.100	0.900	19.91	0.00	0	0
67	2	0.00	0.00	0.00	0.00	1	1.0397630	-34.100753	13.80	1	1.100	0.900	19.91	0.00	0	0
68	2	0.00	0.00	0.00	0.00	1	1.0400000	-30.506916	13.80	1	1.100	0.900	19.91	0.00	0	0
69	2	0.00	0.00	0.00	0.00	1	1.0400000	-33.036192	13.80	1	1.100	0.900	19.91	0.00	0	0
70	2	0.00	0.00	0.00	0.00	1	1.0400000	-31.482346	13.80	1	1.100	0.900	19.91	0.00	0	0
71	2	0.00	0.00	0.00	0.00	1	1.0400000	-33.235699	13.80	1	1.100	0.900	19.91	0.00	0	0
72	2	0.00	0.00	0.00	0.00	1	1.0400000	-33.339534	13.80	1	1.100	0.900	19.91	0.00	0	0
73	2	0.00	0.00	0.00	0.00	1	1.0400000	-32.271523	13.80	1	1.100	0.900	19.91	0.00	0	0
74	1	29.51	8.41	0.00	0.00	1	1.0095407	-40.161028	115.00	1	1.100	0.900	19.91	0.00	0	0
75	1	5.34	1.52	0.00	0.00	1	1.0145111	-34.715113	115.00	1	1.100	0.900	19.91	0.00	0	0
76	2	0.00	0.00	0.00	0.00	1	1.0304520	-34.242271	13.80	1	1.100	0.900	19.91	0.00	0	0
77	2	0.00	0.00	0.00	0.00	1	1.0399996	-33.909675	13.80	1	1.100	0.900	19.91	0.00	0	0
78	2	0.00	0.00	0.00	0.00	1	1.0145111	-34.715113	13.80	1	1.100	0.900	19.91	0.00	0	0
79	2	0.00	0.00	0.00	0.00	1	1.0145111	-34.715113	13.80	1	1.100	0.900	19.91	0.00	0	0
80	1	2.38	0.68	0.00	0.00	1	1.0176234	-40.507786	115.00	1	1.100	0.900	19.91	0.00	0	0
81	1	0.00	0.00	0.00	0.00	1	1.0198084	-36.318888	230.00	1	1.100	0.900	19.91	0.00	0	0
82	1	11.96	3.41	0.00	0.00	1	1.0148957	-37.611244	115.00	1	1.100	0.900	19.91	0.00	0	0
83	1	4.29	1.22	0.00	0.00	1	1.0121630	-38.235649	115.00	1	1.100	0.900	19.91	0.00	0	0
84	1	5.56	1.59	0.00	0.00	1	0.9974352	-38.576435	115.00	1	1.100	0.900	19.91	0.00	0	0
85	1	7.74	2.21	0.00	0.00	1	0.9985930	-39.876466	115.00	1	1.100	0.900	19.91	0.00	0	0
86	1	12.23	3.49	0.00	0.00	1	0.9914831	-37.337220	115.00	1	1.100	0.900	19.91	0.00	0	0
87	1	0.00	0.00	0.00	0.00	1	1.0239312	-34.425784	230.00	1	1.100	0.900	19.91	0.00	0	0
88	1	79.66	22.70	0.00	0.00	1	1.0179159	-36.548316	115.00	1	1.100	0.900	19.91	0.00	0	0
89	1	86.04	24.52	0.00	0.00	1	1.0153373	-38.730979	115.00	1	1.100	0.900	19.91	0.00	0	0
90	2	0.00	0.00	0.00	0.00	1	1.0400527	-37.579430	13.80	1	1.100	0.900	19.91	0.00	0	0
91	2	0.00	0.00	0.00	0.00	1	1.0281598	-38.350971	13.80	1	1.100	0.900	19.91	0.00	0	0
92	2	0.00	0.00	0.00	0.00	1	1.0153373	-38.730979	13.80	1	1.100	0.900	19.91	0.00	0	0
93	1	4.91	1.40	0.00	0.00	1	1.0338729	-36.464760	115.00	1	1.100	0.900	19.91	0.00	0	0
94	2	0.00	0.00	0.00	0.00	1	1.0400000	-33.783748	13.80	1	1.100	0.900	19.91	0.00	0	0
95	1	4.11	1.17	0.00	30.00	1	1.0232285	-39.226670	115.00	1	1.100	0.900	19.91	0.00	0	0
96	1	4.05	1.15	0.00	0.00	1	1.0213953	-36.538532	115.00	1	1.100	0.900	19.91	0.00	0	0
97	1	10.87	3.10	0.00	0.00	1	1.0071893	-36.745569	115.00	1	1.100	0.900	19.91	0.00	0	0
98	1	0.00	0.00	0.00	0.00	1	1.0113730	-33.812716	230.00	1	1.100	0.900	19.91	0.00	0	0
99	1	18.04	5.14	0.00	0.00	1	1.0042577	-35.251722	115.00	1	1.100	0.900	19.91	0.00	0	0
100	1	60.35	17.20	0.00	80.00	1	1.0247974	-41.244916	115.00	1	1.100	0.900	19.91	0.00	0	0
101	1	0.77	0.22	0.00	0.00	1	0.9929976	-37.226845	115.00	1	1.100	0.900	19.91	0.00	0	0
102	1	0.00	0.00	0.00	0.00	1	1.0264281	-34.196747	230.00	1	1.100	0.900	19.91	0.00	0	0
103	1	0.00	0.00	0.00	0.00	1	1.0228028	-34.942196	115.00	1	1.100	0.900	19.91	0.00	0	0
104	2	0.00	0.00	0.00	0.00	1	1.0400000	-31.764889	13.80	1	1.100	0.900	19.91	0.00	0	0
105	2	0.00	0.00	0.00	0.00	1	1.0400000	-32.199518	13.80	1	1.100	0.900	19.91	0.00	0	0
106	1	2.82	0.80	0.00	0.00	1	1.0183205	-35.532764	115.00	1	1.100	0.900	19.91	0.00	0	0
107	1	71.96	20.51	0.00	0.00	1	0.9937757	-39.401922	115.00	1	1.100	0.900	19.91	0.00	0	0
108	1	13.97	3.98	0.00	0.00	1	1.0094490	-35.497994	115.00	1	1.100	0.900	19.91	0.00	0	0
109	1	8.26	2.35	0.00	0.00	1	1.0053316	-38.276135	115.00	1	1.100	0.900	19.91	0.00	0	0
110	1	16.10	4.59	0.00	0.00	1	0.9931360	-37.186933	115.00	1	1.100	0.900	19.91	0.00	0	0
111	1	14.23	4.05	0.00	0.00	1	1.0102879	-42.063077	115.00	1	1.100	0.900	19.91	0.00	0	0
112	1	0.00	0.00	0.00	0.00	1	1.0209330	-34.879400	230.00	1	1.100	0.900	19.91	0.00	0	0
113	1	0.00	0.00	0.00	0.00	1	1.0008686	-38.390099	115.00	1	1.100	0.900	19.91	0.00	0	0
114	2	0.00	0.00	0.00	0.00	1	1.0230842	-34.634125	13.80	1	1.100	0.900	19.91	0.00	0	0
115	2	0.00	0.00	0.00	0.00	1	1.0399997	-32.355944	13.80	1	1.100	0.900	19.91	0.00	0	0
116	1	0.00	0.00	0.00	0.00	1	1.0104285	-34.168369	230.00	1	1.100	0.900	19.91	0.00	0	0
117	1	50.54	14.40	0.00	0.00	1	0.9992010	-36.643951	115.00	1	1.100	0.900	19.91	0.00	0	0
118	1	5.84	1.66	0.00	0.00	1	1.0033711	-35.972147	115.00	1	1.100	0.900	19.91	0.00	0	0
119	1	26.03	7.42	0.00	0.00	1	0.9895964	-38.886846	115.00	1	1.100	0.900	19.91	0.00	0	0
120	1	2.88	0.82	0.00	0.00	1	0.9996053	-39.627558	115.00	1	1.100	0.900	19.91	0.00	0	0
121	1	0.00	0.00	0.00	0.00	1	1.0324816	-32.772229	230.00	1	1.100	0.900	19.91	0.00	0	0
122	1	21.14	6.02	0.00	0.00	1	1.0262679	-34.804698	115.00	1	1.100	0.900	19.91	0.00	0	0
123	1	0.00	0.00	0.00	0.00	1	1.0221851	-32.299716	230.00	1	1.100	0.900	19.91	0.00	0	0
124	1	0.00	0.00	0.00	0.00	1	1.0082927	-34.986017	115.00	1	1.100	0.900	19.91	0.00	0	0
125	2	0.00	0.00	0.00	0.00	1	1.0400000	-25.000250	13.80	1	1.100	0.900	19.91	0.00	0	0
126	2	0.00	0.00	0.00	0.00	1	1.0400000	-27.689867	13.80	1	1.100	0.900	19.91	0.00	0	0
127	2	0.00	0.00	0.00	0.00	1	1.0399998	-30.108481	13.80	1	1.100	0.900	19.91	0.00	0	0
128	1	0.00	0.00	0.00	0.00	1	1.0203933	-34.835260	230.00	1	1.100	0.900	19.91	0.00	0	0
129	1	105.76	30.14	0.00	0.00	1	0.9994277	-38.546988	115.00	1	1.100	0.900	19.91	0.00	0	0
130	1	6.02	1.72	0.00	0.00	1	1.0145653	-35.984118	115.00	1	1.100	0.900	19.91	0.00	0	0
131	1	44.86	12.79	0.00	0.00	1	0.9940677	-37.058270	115.00	1	1.100	0.900	19.91	0.00	0	0
132	1	39.98	11.39	0.00	0.00	1	0.9900854	-38.563865	115.00	1	1.100	0.900	19.91	0.00	0	0
133	1	0.00	0.00	0.00	0.00	1	1.0242435	-32.306364	230.00	1	1.100	0.900	19.91	0.00	0	0
134	1	0.00	0.00	0.00	0.00	1	1.0195573	-33.769344	115.00	1	1.100	0.900	19.91	0.00	0	0
135	2	0.00	0.00	0.00	0.00	1	1.0400000	-28.408423	13.80	1	1.100	0.900	19.91	0.00	0	0
136	2	0.00	0.00	0.00	0.00	1	1.0400000	-29.416358	13.80	1	1.100	0.900	19.91	0.00	0	0
137	1	1.86	0.53	0.00	0.00	1	1.0137634	-37.627525	115.00	1	1.100	0.900	19.91	0.00	0	0
138	1	3.29	0.94	0.00	0.00	1	1.0078133	-38.579746	115.00	1	1.100	0.900	19.91	0.00	0	0
139	1	10.14	2.89	0.00	0.00	1	0.9946733	-39.376811	115.00	1	1.100	0.900	19.91	0.00	0	0
140	1	12.18	3.47	0.00	0.00	1	1.0063156	-35.351430	115.00	1	1.100	0.900	19.91	0.00	0	0
141	1	2.11	0.60	0.00	0.00	1	0.9930708	-37.183069	115.00	1	1.100	0.900	19.91	0.00	0	0
142	1	55.26	15.75	0.00	0.00	1	0.9914475	-37.194045	115.00	1	1.100	0.900	19.91	0.00	0	0
143	1	43.22	12.32	0.00	0.00	1	1.0088970	-39.577922	115.00	1	1.100	0.900	19.91	0.00	0	0
144	1	13.43	3.83	0.00	0.00	1	1.0037721	-36.964329	115.00	1	1.100	0.900	19.91	0.00	0	0
145	1	28.32	8.07	0.00	0.00	1	1.0093721	-37.694371	115.00	1	1.100	0.900	19.91	0.00	0	0
146	1	0.00	0.00	0.00	0.00	1	1.0169636	-38.021100	115.00	1	1.100	0.900	19.91	0.00	0	0
147	2	0.00	0.00	0.00	0.00	1	1.0381577	-35.728968	13.80	1	1.100	0.900	19.91	0.00	0	0
148	1	47.49	13.53	0.00	0.00	1	0.9849749	-38.239004	115.00	1	1.100	0.900	19.91	0.00	0	0
149	1	0.00	0.00	0.00	0.00	1	1.0276389	-33.725517	230.00	1	1.100	0.900	19.91	0.00	0	0
150	1	0.00	0.00	0.00	0.00	1	1.0233662	-35.739007	115.00	1	1.100	0.900	19.91	0.00	0	0
151	2	0.00	0.00	0.00	0.00	1	1.0400000	-31.937978	13.80	1	1.100	0.900	19.91	0.00	0	0
152	2	0.00	0.00	0.00	0.00	1	1.0400000	-27.865328	13.80	1	1.100	0.900	19.91	0.00	0	0
153	2	0.00	0.00	0.00	0.00	1	1.0400000	-26.089597	13.80	1	1.100	0.900	19.91	0.00	0	0
154	2	0.00	0.00	0.00	0.00	1	1.0400000	-29.478111	13.80	1	1.100	0.900	19.91	0.00	0	0
155	2	0.00	0.00	0.00	0.00	1	1.0400000	-29.607317	13.80	1	1.100	0.900	19.91	0.00	0	0
156	1	0.00	0.00	0.00	0.00	1	1.0223269	-32.427279	230.00	1	1.100	0.900	19.91	0.00	0	0
157	1	21.88	6.24	0.00	0.00	1	1.0187677	-33.574016	115.00	1	1.100	0.900	19.91	0.00	0	0
158	1	14.36	4.09	0.00	0.00	1	1.0346860	-35.213704	115.00	1	1.100	0.900	19.91	0.00	0	0
159	1	2.22	0.63	0.00	0.00	1	1.0019767	-39.516135	115.00	1	1.100	0.900	19.91	0.00	0	0
160	1	0.00	0.00	0.00	0.00	1	1.0081743	-38.723814	115.00	1	1.100	0.900	19.91	0.00	0	0
161	2	0.00	0.00	0.00	0.00	1	1.0081743	-38.723814	13.80	1	1.100	0.900	19.91	0.00	0	0
162	1	2.15	0.61	0.00	0.00	1	1.0024632	-36.906507	115.00	1	1.100	0.900	19.91	0.00	0	0
163	1	73.93	21.07	0.00	0.00	1	1.0123536	-41.843199	115.00	1	1.100	0.900	19.91	0.00	0	0
164	2	0.00	0.00	0.00	0.00	1	1.0123536	-41.843199	13.80	1	1.100	0.900	19.91	0.00	0	0
165	2	0.00	0.00	0.00	0.00	1	1.0123536	-41.843199	13.80	1	1.100	0.900	19.91	0.00	0	0
166	2	0.00	0.00	0.00	0.00	1	1.0123536	-41.843199	13.80	1	1.100	0.900	19.91	0.00	0	0
167	2	0.00	0.00	0.00	0.00	1	1.0218227	-41.564013	13.80	1	1.100	0.900	19.91	0.00	0	0
168	2	0.00	0.00	0.00	0.00	1	1.0123536	-41.843199	13.80	1	1.100	0.900	19.91	0.00	0	0
169	2	0.00	0.00	0.00	0.00	1	1.0123536	-41.843199	13.80	1	1.100	0.900	19.91	0.00	0	0
170	2	0.00	0.00	0.00	0.00	1	1.0301529	-41.305336	13.80	1	1.100	0.900	19.91	0.00	0	0
171	1	12.49	3.56	0.00	0.00	1	1.0060941	-39.656251	115.00	1	1.100	0.900	19.91	0.00	0	0
172	1	8.68	2.47	0.00	0.00	1	1.0188870	-40.984003	115.00	1	1.100	0.900	19.91	0.00	0	0
173	1	14.06	4.01	0.00	0.00	1	1.0119075	-41.570880	115.00	1	1.100	0.900	19.91	0.00	0	0
174	1	4.47	1.27	0.00	0.00	1	1.0204429	-40.065498	115.00	1	1.100	0.900	19.91	0.00	0	0
175	1	11.80	3.36	0.00	0.00	1	1.0099292	-41.994472	115.00	1	1.100	0.900	19.91	0.00	0	0
176	1	30.69	8.75	0.00	0.00	1	1.0131194	-37.170943	115.00	1	1.100	0.900	19.91	0.00	0	0
177	1	15.45	4.40	0.00	0.00	1	1.0073091	-39.250774	115.00	1	1.100	0.900	19.91	0.00	0	0
178	1	0.00	0.00	0.00	0.00	1	1.0195650	-37.089357	230.00	1	1.100	0.900	19.91	0.00	0	0
179	1	38.10	10.86	0.00	0.00	1	1.0183811	-40.152559	115.00	1	1.100	0.900	19.91	0.00	0	0
180	1	12.50	3.56	0.00	0.00	1	1.0184757	-40.985530	115.00	1	1.100	0.900	19.91	0.00	0	0
181	1	76.87	21.91	0.00	0.00	1	1.0118841	-38.230887	115.00	1	1.100	0.900	19.91	0.00	0	0
182	2	0.00	0.00	0.00	0.00	1	1.0359846	-35.430907	13.80	1	1.100	0.900	19.91	0.00	0	0
183	2	0.00	0.00	0.00	0.00	1	1.0264683	-36.585830	13.80	1	1.100	0.900	19.91	0.00	0	0
184	1	17.26	4.92	0.00	0.00	1	1.0223367	-39.874601	115.00	1	1.100	0.900	19.91	0.00	0	0
185	1	17.42	4.96	0.00	0.00	1	1.0130106	-37.196027	115.00	1	1.100	0.900	19.91	0.00	0	0
186	1	3.12	0.89	0.00	0.00	1	1.0108151	-37.232587	115.00	1	1.100	0.900	19.91	0.00	0	0
187	1	0.00	0.00	0.00	0.00	1	1.0350100	-31.777405	230.00	1	1.100	0.900	19.91	0.00	0	0
188	1	0.00	0.00	0.00	0.00	1	1.0260971	-35.972140	115.00	1	1.100	0.900	19.91	0.00	0	0
189	3	0.00	0.00	0.00	0.00	1	1.0400000	-29.418352	13.80	1	1.100	0.900	19.91	0.00	0	0
190	1	26.41	7.53	0.00	0.00	1	1.0045903	-40.382720	115.00	1	1.100	0.900	19.91	0.00	0	0
191	1	11.67	3.32	0.00	0.00	1	1.0244728	-38.931208	115.00	1	1.100	0.900	19.91	0.00	0	0
192	1	72.21	20.58	0.00	0.00	1	0.9936463	-39.564117	115.00	1	1.100	0.900	19.91	0.00	0	0
193	1	32.61	9.29	0.00	0.00	1	0.9949034	-36.917745	115.00	1	1.100	0.900	19.91	0.00	0	0
194	1	60.67	17.29	0.00	50.00	1	1.0203914	-37.041793	115.00	1	1.100	0.900	19.91	0.00	0	0
195	1	0.00	0.00	0.00	0.00	1	1.0115779	-38.232512	115.00	1	1.100	0.900	19.91	0.00	0	0
196	2	0.00	0.00	0.00	0.00	1	1.0115779	-38.232512	13.80	1	1.100	0.900	19.91	0.00	0	0
197	2	0.00	0.00	0.00	0.00	1	1.0115779	-38.232512	13.80	1	1.100	0.900	19.91	0.00	0	0
198	1	7.97	2.27	0.00	0.00	1	1.0044686	-36.042435	115.00	1	1.100	0.900	19.91	0.00	0	0
199	1	6.69	1.91	0.00	0.00	1	1.0216683	-40.242031	115.00	1	1.100	0.900	19.91	0.00	0	0
200	1	14.97	4.27	0.00	0.00	1	1.0037141	-37.924332	115.00	1	1.100	0.900	19.91	0.00	0	0
];

%% generator data 
mpc.gen = [
49	4.53	2.11	2.11	-0.55	1.0400	5.44	1	4.53	1.36	0.00	0.00	0.00	0.00	0.00	0.00	0	0	0	0	0.0000	0	0	0	0
50	4.53	2.11	2.11	-0.55	1.0400	5.44	1	4.53	1.36	0.00	0.00	0.00	0.00	0.00	0.00	0	0	0	0	0.0000	0	0	0	0
51	4.53	2.11	2.11	-0.55	1.0400	5.44	1	4.53	1.36	0.00	0.00	0.00	0.00	0.00	0.00	0	0	0	0	0.0000	0	0	0	0
52	4.53	2.11	2.11	-0.55	1.0400	5.44	1	4.53	1.36	0.00	0.00	0.00	0.00	0.00	0.00	0	0	0	0	0.0000	0	0	0	0
53	9.07	3.41	4.23	-1.11	1.0400	10.88	1	9.07	2.72	0.00	0.00	0.00	0.00	0.00	0.00	0	0	0	0	0.0000	0	0	0	0
65	60.66	12.12	32.04	-21.66	1.0400	180.48	1	150.40	45.12	0.00	0.00	0.00	0.00	0.00	0.00	0	0	0	0	0.0000	0	0	0	0
67	4.70	2.19	2.19	-0.57	1.0400	5.64	1	4.70	1.41	0.00	0.00	0.00	0.00	0.00	0.00	0	0	0	0	0.0000	0	0	0	0
68	27.92	1.89	13.01	-3.41	1.0400	33.50	1	27.92	8.38	0.00	0.00	0.00	0.00	0.00	0.00	0	0	0	0	0.0000	0	0	0	0
69	27.92	3.66	13.01	-3.41	1.0400	33.50	1	27.92	8.38	0.00	0.00	0.00	0.00	0.00	0.00	0	0	0	0	0.0000	0	0	0	0
70	27.92	1.95	13.01	-3.41	1.0400	33.50	1	27.92	8.38	0.00	0.00	0.00	0.00	0.00	0.00	0	0	0	0	0.0000	0	0	0	0
71	27.92	4.46	13.01	-3.41	1.0400	33.50	1	27.92	8.38	0.00	0.00	0.00	0.00	0.00	0.00	0	0	0	0	0.0000	0	0	0	0
72	27.92	4.82	13.01	-3.41	1.0400	33.50	1	27.92	8.38	0.00	0.00	0.00	0.00	0.00	0.00	0	0	0	0	0.0000	0	0	0	0
73	27.92	2.21	13.01	-3.41	1.0400	33.50	1	27.92	8.38	0.00	0.00	0.00	0.00	0.00	0.00	0	0	0	0	0.0000	0	0	0	0
76	1.20	2.04	2.04	-0.44	1.0400	4.80	1	4.00	1.20	0.00	0.00	0.00	0.00	0.00	0.00	0	0	0	0	0.0000	0	0	0	0
77	0.72	1.19	1.22	-0.27	1.0400	2.88	1	2.40	0.72	0.00	0.00	0.00	0.00	0.00	0.00	0	0	0	0	0.0000	0	0	0	0
78	0.00	0.00	9.16	-2.00	1.0400	21.60	0	18.00	5.40	0.00	0.00	0.00	0.00	0.00	0.00	0	0	0	0	0.0000	0	0	0	0
79	0.00	0.00	9.16	-2.00	1.0400	21.60	0	18.00	5.40	0.00	0.00	0.00	0.00	0.00	0.00	0	0	0	0	0.0000	0	0	0	0
90	0.96	1.11	1.63	-0.36	1.0400	3.84	1	3.20	0.96	0.00	0.00	0.00	0.00	0.00	0.00	0	0	0	0	0.0000	0	0	0	0
91	1.50	2.55	2.55	-0.55	1.0400	6.00	1	5.00	1.50	0.00	0.00	0.00	0.00	0.00	0.00	0	0	0	0	0.0000	0	0	0	0
92	0.00	0.00	3.21	-0.70	1.0400	7.56	0	6.30	1.89	0.00	0.00	0.00	0.00	0.00	0.00	0	0	0	0	0.0000	0	0	0	0
94	18.00	2.01	8.39	-2.20	1.0400	21.60	1	18.00	5.40	0.00	0.00	0.00	0.00	0.00	0.00	0	0	0	0	0.0000	0	0	0	0
104	52.00	15.94	21.09	-14.26	1.0400	118.80	1	99.00	29.70	0.00	0.00	0.00	0.00	0.00	0.00	0	0	0	0	0.0000	0	0	0	0
105	63.00	23.82	42.17	-28.51	1.0400	237.60	1	198.00	59.40	0.00	0.00	0.00	0.00	0.00	0.00	0	0	0	0	0.0000	0	0	0	0
114	1.08	0.36	0.36	-0.24	1.0400	2.04	1	1.70	0.51	0.00	0.00	0.00	0.00	0.00	0.00	0	0	0	0	0.0000	0	0	0	0
115	75.12	31.70	31.95	-21.60	1.0400	180.00	1	150.00	45.00	0.00	0.00	0.00	0.00	0.00	0.00	0	0	0	0	0.0000	0	0	0	0
125	130.05	20.39	60.60	-15.87	1.0400	156.06	1	130.05	39.02	0.00	0.00	0.00	0.00	0.00	0.00	0	0	0	0	0.0000	0	0	0	0
126	130.05	30.35	60.60	-15.87	1.0400	156.06	1	130.05	39.02	0.00	0.00	0.00	0.00	0.00	0.00	0	0	0	0	0.0000	0	0	0	0
127	130.05	56.81	60.60	-15.87	1.0400	156.06	1	130.05	39.02	0.00	0.00	0.00	0.00	0.00	0.00	0	0	0	0	0.0000	0	0	0	0
135	216.77	53.47	208.02	-54.46	1.0400	535.68	1	446.40	133.92	0.00	0.00	0.00	0.00	0.00	0.00	0	0	0	0	0.0000	0	0	0	0
136	196.42	61.49	208.02	-54.46	1.0400	535.68	1	446.40	133.92	0.00	0.00	0.00	0.00	0.00	0.00	0	0	0	0	0.0000	0	0	0	0
147	42.00	21.41	21.41	-14.47	1.0400	120.60	1	100.50	30.15	0.00	0.00	0.00	0.00	0.00	0.00	0	0	0	0	0.0000	0	0	0	0
151	5.40	1.94	2.52	-0.66	1.0400	6.48	1	5.40	1.62	0.00	0.00	0.00	0.00	0.00	0.00	0	0	0	0	0.0000	0	0	0	0
152	77.22	11.66	35.99	-9.42	1.0400	92.67	1	77.22	23.17	0.00	0.00	0.00	0.00	0.00	0.00	0	0	0	0	0.0000	0	0	0	0
153	77.22	9.80	35.99	-9.42	1.0400	92.67	1	77.22	23.17	0.00	0.00	0.00	0.00	0.00	0.00	0	0	0	0	0.0000	0	0	0	0
154	77.22	13.47	35.99	-9.42	1.0400	92.67	1	77.22	23.17	0.00	0.00	0.00	0.00	0.00	0.00	0	0	0	0	0.0000	0	0	0	0
155	77.22	13.71	35.99	-9.42	1.0400	92.67	1	77.22	23.17	0.00	0.00	0.00	0.00	0.00	0.00	0	0	0	0	0.0000	0	0	0	0
161	0.00	0.00	70.55	-15.38	1.0400	166.32	0	138.60	41.58	0.00	0.00	0.00	0.00	0.00	0.00	0	0	0	0	0.0000	0	0	0	0
164	0.00	0.00	6.11	-1.33	1.0400	14.40	0	12.00	3.60	0.00	0.00	0.00	0.00	0.00	0.00	0	0	0	0	0.0000	0	0	0	0
165	0.00	0.00	13.23	-2.89	1.0400	31.20	0	26.00	7.80	0.00	0.00	0.00	0.00	0.00	0.00	0	0	0	0	0.0000	0	0	0	0
166	0.00	0.00	4.78	-1.04	1.0400	11.28	0	9.40	2.82	0.00	0.00	0.00	0.00	0.00	0.00	0	0	0	0	0.0000	0	0	0	0
167	2.82	4.78	4.78	-1.04	1.0400	11.28	1	9.40	2.82	0.00	0.00	0.00	0.00	0.00	0.00	0	0	0	0	0.0000	0	0	0	0
168	0.00	0.00	4.78	-1.04	1.0400	11.28	0	9.40	2.82	0.00	0.00	0.00	0.00	0.00	0.00	0	0	0	0	0.0000	0	0	0	0
169	0.00	0.00	4.78	-1.04	1.0400	11.28	0	9.40	2.82	0.00	0.00	0.00	0.00	0.00	0.00	0	0	0	0	0.0000	0	0	0	0
170	2.82	4.78	4.78	-1.04	1.0400	11.28	1	9.40	2.82	0.00	0.00	0.00	0.00	0.00	0.00	0	0	0	0	0.0000	0	0	0	0
182	17.50	8.16	8.16	-2.14	1.0400	21.00	1	17.50	5.25	0.00	0.00	0.00	0.00	0.00	0.00	0	0	0	0	0.0000	0	0	0	0
183	26.60	12.40	12.40	-3.25	1.0400	31.92	1	26.60	7.98	0.00	0.00	0.00	0.00	0.00	0.00	0	0	0	0	0.0000	0	0	0	0
189	569.13	56.23	209.45	-46.67	1.0400	682.98	1	569.15	170.75	0.00	0.00	0.00	0.00	0.00	0.00	0	0	0	0	0.0000	0	0	0	0
196	0.00	0.00	34.36	-7.49	1.0400	81.00	0	67.50	20.25	0.00	0.00	0.00	0.00	0.00	0.00	0	0	0	0	0.0000	0	0	0	0
197	0.00	0.00	34.36	-7.49	1.0400	81.00	0	67.50	20.25	0.00	0.00	0.00	0.00	0.00	0.00	0	0	0	0	0.0000	0	0	0	0
];

%% generator cost data
mpc.gencost = [
2	0	0	4	0.0000	0.002	19.000	236.12
2	0	0	4	0.0000	0.002	19.000	236.12
2	0	0	4	0.0000	0.002	19.000	236.12
2	0	0	4	0.0000	0.002	19.000	236.12
2	0	0	4	0.0000	0.002	19.000	236.24
2	0	0	4	0.0000	0.000	0.000	0.00
2	0	0	4	0.0000	0.002	19.000	236.13
2	0	0	4	0.0000	0.002	19.000	236.74
2	0	0	4	0.0000	0.002	19.000	236.74
2	0	0	4	0.0000	0.002	19.000	236.74
2	0	0	4	0.0000	0.002	19.000	236.74
2	0	0	4	0.0000	0.002	19.000	236.74
2	0	0	4	0.0000	0.002	19.000	236.74
2	0	0	4	0.0000	0.002	23.157	606.00
2	0	0	4	0.0000	0.002	23.146	603.60
2	0	0	4	0.0000	0.002	23.252	627.00
2	0	0	4	0.0000	0.002	23.252	627.00
2	0	0	4	0.0000	0.002	23.152	604.80
2	0	0	4	0.0000	0.002	23.164	607.50
2	0	0	4	0.0000	0.002	23.173	609.45
2	0	0	4	0.0000	0.002	19.000	236.48
2	0	0	4	0.0000	0.000	0.000	0.00
2	0	0	4	0.0000	0.000	0.000	0.00
2	0	0	4	0.0000	0.000	0.000	0.00
2	0	0	4	0.0000	0.000	0.000	0.00
2	0	0	4	0.0000	0.002	19.000	610.14
2	0	0	4	0.0000	0.002	19.000	610.14
2	0	0	4	0.0000	0.002	19.000	610.14
2	0	0	4	0.0000	0.002	19.000	1261.33
2	0	0	4	0.0000	0.002	19.000	1261.33
2	0	0	4	0.0000	0.000	0.000	0.00
2	0	0	4	0.0000	0.002	19.000	236.14
2	0	0	4	0.0000	0.002	19.000	253.01
2	0	0	4	0.0000	0.002	19.000	253.01
2	0	0	4	0.0000	0.002	19.000	253.01
2	0	0	4	0.0000	0.002	19.000	253.01
2	0	0	4	0.0000	0.002	24.070	807.90
2	0	0	4	0.0000	0.002	23.211	618.00
2	0	0	4	0.0000	0.002	23.306	639.00
2	0	0	4	0.0000	0.002	23.194	614.10
2	0	0	4	0.0000	0.002	23.194	614.10
2	0	0	4	0.0000	0.002	23.194	614.10
2	0	0	4	0.0000	0.002	23.194	614.10
2	0	0	4	0.0000	0.002	23.194	614.10
2	0	0	4	0.0000	0.002	19.000	236.47
2	0	0	4	0.0000	0.002	19.000	236.71
2	0	0	4	0.0000	0.000	6.710	1272.13
2	0	0	4	0.0000	0.002	23.588	701.25
2	0	0	4	0.0000	0.002	23.588	701.25
];

%% branch data
mpc.branch = [
2	1	0.000673	0.003339	0.00000	100.00	0.00	0.00	0.00000	0.000	1	0.00	0.00	-10.95	-3.12	10.95	3.13	0	0	0	0
1	119	0.018542	0.119758	0.02285	221.10	0.00	0.00	0.00000	0.000	1	0.00	0.00	35.04	1.77	-34.81	-2.55	0	0	0	0
124	1	0.005615	0.036268	0.00692	221.10	0.00	0.00	0.00000	0.000	1	0.00	0.00	75.09	15.57	-74.77	-14.17	0	0	0	0
193	1	0.004258	0.027501	0.00525	221.10	0.00	0.00	0.00000	0.000	1	0.00	0.00	-28.73	-9.53	28.77	9.27	0	0	0	0
4	3	0.000573	0.003303	0.00000	100.00	0.00	0.00	0.00000	0.000	1	0.00	0.00	-2.72	-0.77	2.72	0.77	0	0	0	0
57	3	0.008505	0.058098	0.00988	221.10	0.00	0.00	0.00000	0.000	1	0.00	0.00	-24.23	-5.06	24.28	4.40	0	0	0	0
3	137	0.005889	0.038035	0.00726	221.10	0.00	0.00	0.00000	0.000	1	0.00	0.00	-27.00	-5.18	27.04	4.72	0	0	0	0
6	5	0.000694	0.003337	0.00000	100.00	0.00	0.00	0.00000	0.000	1	0.00	0.00	-12.50	-3.56	12.50	3.57	0	0	0	0
48	5	0.006246	0.043513	0.00711	221.10	0.00	0.00	0.00000	0.000	1	0.00	0.00	-12.86	-4.84	12.87	4.17	0	0	0	0
5	64	0.007877	0.054875	0.00897	221.10	0.00	0.00	0.00000	0.000	1	0.00	0.00	-25.37	-7.74	25.42	7.16	0	0	0	0
8	7	0.000634	0.003189	0.00000	100.00	0.00	0.00	0.00000	0.000	1	0.00	0.00	-35.20	-10.03	35.21	10.08	0	0	0	0
7	86	0.003756	0.024259	0.00463	221.10	0.00	0.00	0.00000	0.000	1	0.00	0.00	-22.13	-4.77	22.15	4.44	0	0	0	0
7	101	0.003597	0.023232	0.00443	221.10	0.00	0.00	0.00000	0.000	1	0.00	0.00	-32.06	-9.97	32.11	9.80	0	0	0	0
7	148	0.008667	0.055980	0.01068	221.10	0.00	0.00	0.00000	0.000	1	0.00	0.00	18.98	4.66	-18.95	-5.48	0	0	0	0
10	9	0.000585	0.003967	0.00000	100.00	0.00	0.00	0.00000	0.000	1	0.00	0.00	-63.29	-18.04	63.32	18.21	0	0	0	0
9	124	0.008069	0.055123	0.00938	221.10	0.00	0.00	0.00000	0.000	1	0.00	0.00	-66.84	-15.43	67.22	17.10	0	0	0	0
131	9	0.004139	0.026732	0.00510	221.10	0.00	0.00	0.00000	0.000	1	0.00	0.00	-2.09	0.58	2.09	-1.09	0	0	0	0
9	141	0.004446	0.030970	0.00506	221.10	0.00	0.00	0.00000	0.000	1	0.00	0.00	9.07	1.22	-9.07	-1.69	0	0	0	0
9	193	0.003695	0.025244	0.00429	221.10	0.00	0.00	0.00000	0.000	1	0.00	0.00	-7.65	-2.92	7.65	2.51	0	0	0	0
12	11	0.000534	0.003533	0.00000	100.00	0.00	0.00	0.00000	0.000	1	0.00	0.00	-0.49	-0.14	0.49	0.14	0	0	0	0
13	11	0.000619	0.003606	0.00000	100.00	0.00	0.00	0.00000	0.000	1	0.00	0.00	-4.04	-1.15	4.04	1.15	0	0	0	0
11	15	0.010408	0.067220	0.01282	221.10	0.00	0.00	0.00000	0.000	1	0.00	0.00	-3.68	-1.16	3.68	-0.20	0	0	0	0
11	93	0.018394	0.128141	0.02095	221.10	0.00	0.00	0.00000	0.000	1	0.00	0.00	12.09	-1.93	-12.06	-0.13	0	0	0	0
158	11	0.008519	0.058199	0.00990	221.10	0.00	0.00	0.00000	0.000	1	0.00	0.00	12.95	-2.77	-12.94	1.80	0	0	0	0
15	14	0.000637	0.027526	0.00000	300.00	0.00	0.00	1.00000	0.000	1	0.00	0.00	-75.41	11.77	75.45	-10.28	0	0	0	0
14	121	0.007013	0.050098	0.09134	402.36	0.00	0.00	0.00000	0.000	1	0.00	0.00	-58.37	5.45	58.60	-13.54	0	0	0	0
14	149	0.009133	0.065244	0.11895	402.36	0.00	0.00	0.00000	0.000	1	0.00	0.00	-17.08	4.83	17.11	-17.20	0	0	0	0
16	15	0.000553	0.003200	0.00000	100.00	0.00	0.00	0.00000	0.000	1	0.00	0.00	-71.70	-20.44	71.73	20.60	0	0	0	0
18	17	0.000503	0.003926	0.00000	100.00	0.00	0.00	0.00000	0.000	1	0.00	0.00	-1.14	-0.33	1.14	0.33	0	0	0	0
19	17	0.000514	0.003079	0.00000	100.00	0.00	0.00	0.00000	0.000	1	0.00	0.00	-1.23	-0.35	1.23	0.35	0	0	0	0
20	17	0.000623	0.003339	0.00000	100.00	0.00	0.00	0.00000	0.000	1	0.00	0.00	-1.81	-0.52	1.81	0.52	0	0	0	0
21	17	0.000620	0.003940	0.00000	100.00	0.00	0.00	0.00000	0.000	1	0.00	0.00	-7.38	-2.10	7.38	2.11	0	0	0	0
109	17	0.009789	0.068198	0.01115	221.10	0.00	0.00	0.00000	0.000	1	0.00	0.00	23.24	2.46	-23.19	-3.22	0	0	0	0
17	120	0.010316	0.070473	0.01199	221.10	0.00	0.00	0.00000	0.000	1	0.00	0.00	11.62	-0.08	-11.61	-1.02	0	0	0	0
23	22	0.000616	0.003222	0.00000	100.00	0.00	0.00	0.00000	0.000	1	0.00	0.00	-2.26	-0.64	2.26	0.64	0	0	0	0
24	22	0.000687	0.003067	0.00000	100.00	0.00	0.00	0.00000	0.000	1	0.00	0.00	-3.84	-1.09	3.84	1.09	0	0	0	0
22	27	0.011379	0.073494	0.01402	221.10	0.00	0.00	0.00000	0.000	1	0.00	0.00	3.14	-2.07	-3.14	0.58	0	0	0	0
158	22	0.012701	0.086769	0.01476	221.10	0.00	0.00	0.00000	0.000	1	0.00	0.00	9.26	-1.84	-9.25	0.33	0	0	0	0
26	25	0.000610	0.003071	0.00000	100.00	0.00	0.00	0.00000	0.000	1	0.00	0.00	-2.13	-0.61	2.13	0.61	0	0	0	0
25	64	0.007643	0.053244	0.00870	221.10	0.00	0.00	0.00000	0.000	1	0.00	0.00	-35.10	-1.66	35.19	1.37	0	0	0	0
199	25	0.009909	0.064003	0.01221	221.10	0.00	0.00	0.00000	0.000	1	0.00	0.00	-32.87	-1.67	32.97	1.06	0	0	0	0
28	27	0.000587	0.003964	0.00000	100.00	0.00	0.00	0.00000	0.000	1	0.00	0.00	-3.74	-1.07	3.74	1.07	0	0	0	0
27	93	0.025172	0.175362	0.02867	221.10	0.00	0.00	0.00000	0.000	1	0.00	0.00	7.22	-1.83	-7.21	-1.15	0	0	0	0
27	158	0.020429	0.131945	0.02517	221.10	0.00	0.00	0.00000	0.000	1	0.00	0.00	-7.82	0.19	7.83	-2.81	0	0	0	0
30	29	0.000694	0.003131	0.00000	100.00	0.00	0.00	0.00000	0.000	1	0.00	0.00	-87.62	-24.97	87.68	25.23	0	0	0	0
124	29	0.005561	0.038742	0.00633	221.10	0.00	0.00	0.00000	0.000	1	0.00	0.00	58.67	16.43	-58.47	-15.64	0	0	0	0
29	140	0.007895	0.055004	0.00899	221.10	0.00	0.00	0.00000	0.000	1	0.00	0.00	-29.21	-9.59	29.29	9.20	0	0	0	0
32	31	0.000667	0.003884	0.00000	100.00	0.00	0.00	0.00000	0.000	1	0.00	0.00	-0.70	-0.20	0.70	0.20	0	0	0	0
33	31	0.000528	0.003639	0.00000	100.00	0.00	0.00	0.00000	0.000	1	0.00	0.00	-8.82	-2.51	8.82	2.52	0	0	0	0
177	31	0.008406	0.058560	0.00957	221.10	0.00	0.00	0.00000	0.000	1	0.00	0.00	11.08	11.59	-11.06	-12.39	0	0	0	0
192	31	0.008088	0.055250	0.00940	221.10	0.00	0.00	0.00000	0.000	1	0.00	0.00	-1.53	-10.55	1.54	9.68	0	0	0	0
35	34	0.000575	0.003674	0.00000	100.00	0.00	0.00	0.00000	0.000	1	0.00	0.00	-33.26	-9.48	33.27	9.52	0	0	0	0
34	54	0.006268	0.042819	0.00729	221.10	0.00	0.00	0.00000	0.000	1	0.00	0.00	-62.22	-14.26	62.47	15.18	0	0	0	0
34	137	0.006911	0.044639	0.00852	221.10	0.00	0.00	0.00000	0.000	1	0.00	0.00	28.96	4.74	-28.90	-5.25	0	0	0	0
37	36	0.000552	0.003328	0.00000	100.00	0.00	0.00	0.00000	0.000	1	0.00	0.00	-4.89	-1.39	4.89	1.39	0	0	0	0
38	36	0.000670	0.003511	0.00000	100.00	0.00	0.00	0.00000	0.000	1	0.00	0.00	-40.81	-11.63	40.82	11.69	0	0	0	0
58	36	0.010889	0.074390	0.01266	221.10	0.00	0.00	0.00000	0.000	1	0.00	0.00	6.59	8.08	-6.58	-9.29	0	0	0	0
83	36	0.009615	0.066986	0.01095	221.10	0.00	0.00	0.00000	0.000	1	0.00	0.00	39.28	3.71	-39.13	-3.80	0	0	0	0
40	39	0.000505	0.003103	0.00000	100.00	0.00	0.00	0.00000	0.000	1	0.00	0.00	-3.28	-0.93	3.28	0.93	0	0	0	0
39	85	0.008702	0.060625	0.00991	221.10	0.00	0.00	0.00000	0.000	1	0.00	0.00	-0.98	0.10	0.98	-1.09	0	0	0	0
159	39	0.007332	0.051080	0.00835	221.10	0.00	0.00	0.00000	0.000	1	0.00	0.00	14.18	3.69	-14.16	-4.42	0	0	0	0
41	100	0.004595	0.029676	0.00566	221.10	0.00	0.00	0.00000	0.000	1	0.00	0.00	-39.78	-27.33	39.88	27.41	0	0	0	0
41	163	0.003165	0.021623	0.00368	221.10	0.00	0.00	0.00000	0.000	1	0.00	0.00	3.14	11.95	-3.14	-12.30	0	0	0	0
41	180	0.009408	0.060766	0.01159	221.10	0.00	0.00	0.00000	0.000	1	0.00	0.00	-25.23	-2.25	25.29	1.43	0	0	0	0
44	42	0.012256	0.085383	0.01396	221.10	0.00	0.00	0.00000	0.000	1	0.00	0.00	2.81	-3.64	-2.81	2.24	0	0	0	0
181	42	0.008008	0.055790	0.00912	221.10	0.00	0.00	0.00000	0.000	1	0.00	0.00	14.22	6.29	-14.20	-7.09	0	0	0	0
43	84	0.007509	0.051295	0.00873	221.10	0.00	0.00	0.00000	0.000	1	0.00	0.00	-2.51	-5.99	2.51	5.14	0	0	0	0
43	132	0.011052	0.075503	0.01285	221.10	0.00	0.00	0.00000	0.000	1	0.00	0.00	-0.59	5.11	0.59	-6.35	0	0	0	0
44	200	0.014813	0.101195	0.01722	221.10	0.00	0.00	0.00000	0.000	1	0.00	0.00	-9.46	1.75	9.47	-3.39	0	0	0	0
46	45	0.000936	0.049195	0.00000	160.00	0.00	0.00	1.00000	0.000	1	0.00	0.00	-33.03	-4.43	33.04	4.95	0	0	0	0
55	45	0.002593	0.018527	0.03378	402.36	0.00	0.00	0.00000	0.000	1	0.00	0.00	-75.73	-7.49	75.87	4.95	0	0	0	0
102	45	0.002900	0.020715	0.03777	402.36	0.00	0.00	0.00000	0.000	1	0.00	0.00	-39.65	-2.86	39.69	-0.81	0	0	0	0
45	187	0.003474	0.024821	0.04525	402.36	0.00	0.00	0.00000	0.000	1	0.00	0.00	-148.60	-9.08	149.33	9.47	0	0	0	0
61	46	0.006971	0.048561	0.00794	221.10	0.00	0.00	0.00000	0.000	1	0.00	0.00	-19.87	-5.58	19.90	4.95	0	0	0	0
122	46	0.010129	0.065419	0.01248	221.10	0.00	0.00	0.00000	0.000	1	0.00	0.00	-4.45	1.70	4.45	-3.00	0	0	0	0
47	54	0.006678	0.045623	0.00776	221.10	0.00	0.00	0.00000	0.000	1	0.00	0.00	21.12	5.02	-21.09	-5.64	0	0	0	0
47	66	0.007339	0.047401	0.00904	221.10	0.00	0.00	0.00000	0.000	1	0.00	0.00	-23.59	-5.73	23.63	5.02	0	0	0	0
49	48	0.027149	0.532021	0.00000	28.90	0.00	0.00	1.00000	0.000	1	0.00	0.00	4.53	2.11	-4.52	-1.99	0	0	0	0
50	48	0.021719	0.404167	0.00000	28.70	0.00	0.00	1.00000	0.000	1	0.00	0.00	4.53	2.11	-4.52	-2.01	0	0	0	0
51	48	0.027149	0.612711	0.00000	24.30	0.00	0.00	1.00000	0.000	1	0.00	0.00	4.53	2.11	-4.52	-1.97	0	0	0	0
52	48	0.021719	0.379817	0.00000	24.30	0.00	0.00	1.00000	0.000	1	0.00	0.00	4.53	2.11	-4.52	-2.02	0	0	0	0
53	48	0.021210	0.576549	0.00000	35.30	0.00	0.00	1.00000	0.000	1	0.00	0.00	9.07	3.41	-9.05	-2.91	0	0	0	0
48	74	0.007959	0.054369	0.00925	221.10	0.00	0.00	0.00000	0.000	1	0.00	0.00	37.14	14.92	-37.02	-15.02	0	0	0	0
54	66	0.007051	0.045544	0.00869	221.10	0.00	0.00	0.00000	0.000	1	0.00	0.00	-45.65	-10.75	45.80	10.77	0	0	0	0
56	55	0.005152	0.124653	0.00000	160.00	0.00	0.00	1.00000	0.000	1	0.00	0.00	-5.55	-1.01	5.55	1.05	0	0	0	0
81	55	0.005467	0.039054	0.07120	402.36	0.00	0.00	0.00000	0.000	1	0.00	0.00	-84.54	-3.35	84.92	-1.41	0	0	0	0
55	102	0.001246	0.008902	0.01623	402.36	0.00	0.00	0.00000	0.000	1	0.00	0.00	-65.49	-11.21	65.54	9.87	0	0	0	0
55	112	0.004166	0.029763	0.05426	402.36	0.00	0.00	0.00000	0.000	1	0.00	0.00	24.19	6.87	-24.16	-12.35	0	0	0	0
55	128	0.003415	0.024395	0.04448	402.36	0.00	0.00	0.00000	0.000	1	0.00	0.00	26.57	12.18	-26.54	-16.62	0	0	0	0
56	103	0.004282	0.029830	0.00488	221.10	0.00	0.00	0.00000	0.000	1	0.00	0.00	3.76	0.50	-3.76	-1.01	0	0	0	0
57	159	0.007520	0.051369	0.00874	221.10	0.00	0.00	0.00000	0.000	1	0.00	0.00	19.72	3.77	-19.68	-4.45	0	0	0	0
95	58	0.009836	0.063526	0.01212	221.10	0.00	0.00	0.00000	0.000	1	0.00	0.00	9.28	14.35	-9.25	-15.42	0	0	0	0
177	58	0.014049	0.095972	0.01633	221.10	0.00	0.00	0.00000	0.000	1	0.00	0.00	3.14	-7.30	-3.13	5.68	0	0	0	0
59	119	0.011209	0.072397	0.01381	221.10	0.00	0.00	0.00000	0.000	1	0.00	0.00	-8.77	3.59	8.78	-4.87	0	0	0	0
59	139	0.009665	0.062426	0.01191	221.10	0.00	0.00	0.00000	0.000	1	0.00	0.00	1.75	-5.59	-1.75	4.43	0	0	0	0
60	97	0.012274	0.079279	0.01512	221.10	0.00	0.00	0.00000	0.000	1	0.00	0.00	35.54	2.28	-35.39	-2.84	0	0	0	0
134	60	0.009007	0.062749	0.01026	221.10	0.00	0.00	0.00000	0.000	1	0.00	0.00	41.32	3.86	-41.17	-3.88	0	0	0	0
61	103	0.006539	0.045556	0.00745	221.10	0.00	0.00	0.00000	0.000	1	0.00	0.00	-8.27	-2.44	8.28	1.69	0	0	0	0
159	62	0.008634	0.058979	0.01003	221.10	0.00	0.00	0.00000	0.000	1	0.00	0.00	3.28	0.12	-3.28	-1.12	0	0	0	0
160	62	0.007628	0.053144	0.00869	221.10	0.00	0.00	0.00000	0.000	1	0.00	0.00	31.09	8.32	-31.01	-8.65	0	0	0	0
63	66	0.011949	0.083244	0.01361	221.10	0.00	0.00	0.00000	0.000	1	0.00	0.00	-57.68	-1.28	58.06	2.46	0	0	0	0
63	184	0.017963	0.116023	0.02214	221.10	0.00	0.00	0.00000	0.000	1	0.00	0.00	44.90	-2.36	-44.56	2.25	0	0	0	0
65	64	0.001280	0.101570	0.00000	195.50	0.00	0.00	1.00000	0.000	1	0.00	0.00	60.66	12.12	-60.61	-8.53	0	0	0	0
67	66	0.020951	0.144786	0.00000	30.00	0.00	0.00	1.00000	0.000	1	0.00	0.00	4.70	2.19	-4.69	-2.15	0	0	0	0
68	66	0.006890	0.264997	0.00000	73.00	0.00	0.00	1.00000	0.000	1	0.00	0.00	27.92	1.89	-27.87	0.03	0	0	0	0
69	66	0.004410	0.094990	0.00000	70.50	0.00	0.00	1.00000	0.000	1	0.00	0.00	27.92	3.66	-27.89	-2.96	0	0	0	0
70	66	0.006890	0.199449	0.00000	70.50	0.00	0.00	1.00000	0.000	1	0.00	0.00	27.92	1.95	-27.87	-0.51	0	0	0	0
71	66	0.003528	0.081544	0.00000	68.00	0.00	0.00	1.00000	0.000	1	0.00	0.00	27.92	4.46	-27.89	-3.86	0	0	0	0
72	66	0.003528	0.074599	0.00000	68.00	0.00	0.00	1.00000	0.000	1	0.00	0.00	27.92	4.82	-27.89	-4.27	0	0	0	0
73	66	0.006890	0.146423	0.00000	65.00	0.00	0.00	1.00000	0.000	1	0.00	0.00	27.92	2.21	-27.87	-1.14	0	0	0	0
66	158	0.004993	0.032251	0.00615	221.10	0.00	0.00	0.00000	0.000	1	0.00	0.00	44.49	-3.39	-44.40	3.33	0	0	0	0
74	190	0.008894	0.060760	0.01034	221.10	0.00	0.00	0.00000	0.000	1	0.00	0.00	7.50	6.61	-7.49	-7.60	0	0	0	0
76	75	0.038464	0.784328	0.00000	24.30	0.00	0.00	1.00000	0.000	1	0.00	0.00	1.20	2.04	-1.20	-2.00	0	0	0	0
77	75	0.080130	2.192105	0.00000	7.40	0.00	0.00	1.00000	0.000	1	0.00	0.00	0.72	1.19	-0.72	-1.15	0	0	0	0
78	75	0.008544	0.181406	0.00000	65.00	0.00	0.00	1.00000	0.000	1	0.00	0.00	0.00	0.00	0.00	0.00	0	0	0	0
79	75	0.010680	0.277774	0.00000	62.10	0.00	0.00	1.00000	0.000	1	0.00	0.00	0.00	0.00	0.00	0.00	0	0	0	0
108	75	0.010988	0.070969	0.01354	221.10	0.00	0.00	0.00000	0.000	1	0.00	0.00	-20.32	-4.61	20.37	3.52	0	0	0	0
75	157	0.013487	0.087112	0.01662	221.10	0.00	0.00	0.00000	0.000	1	0.00	0.00	-23.79	-1.89	23.86	0.66	0	0	0	0
80	100	0.021463	0.149525	0.02444	221.10	0.00	0.00	0.00000	0.000	1	0.00	0.00	8.11	-7.25	-8.09	4.85	0	0	0	0
80	143	0.020594	0.143470	0.02345	221.10	0.00	0.00	0.00000	0.000	1	0.00	0.00	-10.49	6.58	10.53	-8.75	0	0	0	0
82	81	0.000970	0.042371	0.00000	250.00	0.00	0.00	1.00000	0.000	1	0.00	0.00	-55.32	-9.88	55.35	11.18	0	0	0	0
81	178	0.006598	0.047137	0.08594	402.36	0.00	0.00	0.00000	0.000	1	0.00	0.00	29.19	-7.83	-29.14	-0.72	0	0	0	0
82	195	0.003845	0.026265	0.00447	221.10	0.00	0.00	0.00000	0.000	1	0.00	0.00	43.36	6.47	-43.29	-6.44	0	0	0	0
83	146	0.005382	0.036767	0.00626	221.10	0.00	0.00	0.00000	0.000	1	0.00	0.00	-12.15	-11.74	12.17	11.19	0	0	0	0
83	186	0.007920	0.055174	0.00902	221.10	0.00	0.00	0.00000	0.000	1	0.00	0.00	-31.42	6.80	31.50	-7.17	0	0	0	0
84	113	0.006652	0.045440	0.00773	221.10	0.00	0.00	0.00000	0.000	1	0.00	0.00	-8.07	-6.73	8.08	6.00	0	0	0	0
85	120	0.007786	0.050291	0.00959	221.10	0.00	0.00	0.00000	0.000	1	0.00	0.00	-8.72	-1.12	8.73	0.20	0	0	0	0
86	101	0.005120	0.033072	0.00631	221.10	0.00	0.00	0.00000	0.000	1	0.00	0.00	-6.29	-3.87	6.29	3.27	0	0	0	0
142	86	0.003387	0.023141	0.00394	221.10	0.00	0.00	0.00000	0.000	1	0.00	0.00	10.37	-1.85	-10.37	1.49	0	0	0	0
86	193	0.006606	0.042664	0.00814	221.10	0.00	0.00	0.00000	0.000	1	0.00	0.00	-17.72	-5.54	17.75	4.89	0	0	0	0
88	87	0.000832	0.034189	0.00000	350.00	0.00	0.00	1.00000	0.000	1	0.00	0.00	-113.23	-13.06	113.33	17.35	0	0	0	0
149	87	0.001621	0.011579	0.02111	402.36	0.00	0.00	0.00000	0.000	1	0.00	0.00	113.53	16.58	-113.33	-17.35	0	0	0	0
88	150	0.005570	0.035973	0.00686	221.10	0.00	0.00	0.00000	0.000	1	0.00	0.00	-42.23	-8.95	42.33	8.88	0	0	0	0
176	88	0.003859	0.024922	0.00475	221.10	0.00	0.00	0.00000	0.000	1	0.00	0.00	-46.82	-12.25	46.91	12.33	0	0	0	0
88	194	0.004258	0.029088	0.00495	221.10	0.00	0.00	0.00000	0.000	1	0.00	0.00	28.89	-13.02	-28.85	12.78	0	0	0	0
90	89	0.060100	2.279922	0.00000	8.60	0.00	0.00	1.00000	0.000	1	0.00	0.00	0.96	1.11	-0.96	-1.07	0	0	0	0
91	89	0.024614	0.503424	0.00000	32.00	0.00	0.00	1.00000	0.000	1	0.00	0.00	1.50	2.55	-1.50	-2.51	0	0	0	0
92	89	0.019539	0.362040	0.00000	35.30	0.00	0.00	1.00000	0.000	1	0.00	0.00	0.00	0.00	0.00	0.00	0	0	0	0
89	95	0.008734	0.056409	0.01076	221.10	0.00	0.00	0.00000	0.000	1	0.00	0.00	13.42	-16.77	-13.39	15.89	0	0	0	0
188	89	0.008050	0.051996	0.00992	221.10	0.00	0.00	0.00000	0.000	1	0.00	0.00	97.75	7.90	-97.01	-4.18	0	0	0	0
94	93	0.010680	0.280602	0.00000	62.10	0.00	0.00	1.00000	0.000	1	0.00	0.00	18.00	2.01	-17.97	-1.15	0	0	0	0
93	191	0.022088	0.142662	0.02722	221.10	0.00	0.00	0.00000	0.000	1	0.00	0.00	32.34	1.04	-32.12	-2.52	0	0	0	0
122	96	0.010620	0.073986	0.01209	221.10	0.00	0.00	0.00000	0.000	1	0.00	0.00	43.04	0.59	-42.86	-0.56	0	0	0	0
96	143	0.015858	0.102423	0.01954	221.10	0.00	0.00	0.00000	0.000	1	0.00	0.00	54.20	4.47	-53.74	-3.57	0	0	0	0
96	188	0.010903	0.070421	0.01343	221.10	0.00	0.00	0.00000	0.000	1	0.00	0.00	-15.39	-5.07	15.41	3.83	0	0	0	0
97	200	0.013180	0.085125	0.01624	221.10	0.00	0.00	0.00000	0.000	1	0.00	0.00	24.52	-0.26	-24.44	-0.88	0	0	0	0
99	98	0.000643	0.030516	0.00000	250.00	0.00	0.00	1.00000	0.000	1	0.00	0.00	-84.02	-20.60	84.07	22.86	0	0	0	0
98	123	0.004700	0.033574	0.06121	402.36	0.00	0.00	0.00000	0.000	1	0.00	0.00	-84.07	-22.86	84.41	18.98	0	0	0	0
99	142	0.007605	0.052982	0.00866	221.10	0.00	0.00	0.00000	0.000	1	0.00	0.00	65.98	15.45	-65.63	-13.90	0	0	0	0
100	174	0.010698	0.074531	0.01218	221.10	0.00	0.00	0.00000	0.000	1	0.00	0.00	-27.41	9.58	27.50	-10.25	0	0	0	0
100	179	0.007093	0.049413	0.00808	221.10	0.00	0.00	0.00000	0.000	1	0.00	0.00	-37.53	18.65	37.65	-18.66	0	0	0	0
100	184	0.012745	0.088790	0.01451	221.10	0.00	0.00	0.00000	0.000	1	0.00	0.00	-27.20	6.32	27.30	-7.17	0	0	0	0
110	101	0.001960	0.012657	0.00241	221.10	0.00	0.00	0.00000	0.000	1	0.00	0.00	5.47	0.12	-5.46	-0.36	0	0	0	0
101	117	0.005245	0.035833	0.00610	221.10	0.00	0.00	0.00000	0.000	1	0.00	0.00	-30.02	-12.95	30.08	12.73	0	0	0	0
101	141	0.003144	0.020305	0.00387	221.10	0.00	0.00	0.00000	0.000	1	0.00	0.00	-3.68	0.02	3.68	-0.40	0	0	0	0
103	102	0.001709	0.054578	0.00000	250.00	0.00	0.00	1.00000	0.000	1	0.00	0.00	-25.21	-5.84	25.22	6.19	0	0	0	0
104	102	0.002100	0.087749	0.00000	130.00	0.00	0.00	1.00000	0.000	1	0.00	0.00	52.00	15.94	-51.94	-13.54	0	0	0	0
105	102	0.000970	0.059419	0.00000	260.00	0.00	0.00	1.00000	0.000	1	0.00	0.00	63.00	23.82	-62.96	-21.33	0	0	0	0
102	128	0.002700	0.019292	0.03517	402.36	0.00	0.00	0.00000	0.000	1	0.00	0.00	63.79	21.66	-63.67	-24.50	0	0	0	0
103	106	0.007749	0.053987	0.00883	221.10	0.00	0.00	0.00000	0.000	1	0.00	0.00	20.69	5.16	-20.66	-5.84	0	0	0	0
130	106	0.006991	0.047761	0.00813	221.10	0.00	0.00	0.00000	0.000	1	0.00	0.00	-17.82	-5.72	17.84	5.04	0	0	0	0
107	113	0.006748	0.046101	0.00784	221.10	0.00	0.00	0.00000	0.000	1	0.00	0.00	-39.44	-9.57	39.55	9.55	0	0	0	0
107	129	0.005168	0.035307	0.00601	221.10	0.00	0.00	0.00000	0.000	1	0.00	0.00	-43.33	-9.55	43.43	9.65	0	0	0	0
192	107	0.003939	0.025441	0.00485	221.10	0.00	0.00	0.00000	0.000	1	0.00	0.00	-10.80	0.94	10.81	-1.39	0	0	0	0
108	198	0.024792	0.160126	0.03055	221.10	0.00	0.00	0.00000	0.000	1	0.00	0.00	6.36	0.63	-6.34	-3.65	0	0	0	0
186	109	0.008774	0.059942	0.01020	221.10	0.00	0.00	0.00000	0.000	1	0.00	0.00	31.59	4.38	-31.51	-4.82	0	0	0	0
110	193	0.003444	0.022243	0.00424	221.10	0.00	0.00	0.00000	0.000	1	0.00	0.00	-21.57	-4.71	21.58	4.40	0	0	0	0
163	111	0.005281	0.034111	0.00651	221.10	0.00	0.00	0.00000	0.000	1	0.00	0.00	12.17	3.94	-12.16	-4.55	0	0	0	0
111	175	0.007950	0.055386	0.00905	221.10	0.00	0.00	0.00000	0.000	1	0.00	0.00	-2.07	0.49	2.07	-1.41	0	0	0	0
113	112	0.002077	0.058615	0.00000	350.00	0.00	0.00	1.00000	0.000	1	0.00	0.00	-107.71	-27.17	107.97	34.39	0	0	0	0
114	112	0.060000	0.434013	0.00000	20.00	0.00	0.00	1.00000	0.000	1	0.00	0.00	1.08	0.36	-1.08	-0.35	0	0	0	0
115	112	0.001280	0.062771	0.00000	200.00	0.00	0.00	1.00000	0.000	1	0.00	0.00	75.12	31.70	-75.04	-27.84	0	0	0	0
128	112	0.001295	0.009255	0.01687	402.36	0.00	0.00	0.00000	0.000	1	0.00	0.00	7.69	-7.90	-7.69	6.15	0	0	0	0
113	192	0.005418	0.034995	0.00668	221.10	0.00	0.00	0.00000	0.000	1	0.00	0.00	60.08	11.62	-59.87	-10.97	0	0	0	0
117	116	0.000517	0.034943	0.00000	300.00	0.00	0.00	1.00000	0.000	1	0.00	0.00	-125.21	-27.56	125.29	33.31	0	0	0	0
133	116	0.003890	0.027793	0.05067	402.36	0.00	0.00	0.00000	0.000	1	0.00	0.00	125.93	32.59	-125.29	-33.31	0	0	0	0
117	132	0.011912	0.082984	0.01357	221.10	0.00	0.00	0.00000	0.000	1	0.00	0.00	40.77	5.12	-40.57	-5.05	0	0	0	0
117	162	0.016170	0.104442	0.01993	221.10	0.00	0.00	0.00000	0.000	1	0.00	0.00	3.82	-4.70	-3.82	2.73	0	0	0	0
131	118	0.007180	0.046377	0.00885	221.10	0.00	0.00	0.00000	0.000	1	0.00	0.00	-42.77	-13.37	42.91	13.42	0	0	0	0
118	134	0.011598	0.080800	0.01321	221.10	0.00	0.00	0.00000	0.000	1	0.00	0.00	-50.38	-12.60	50.69	13.40	0	0	0	0
118	198	0.009487	0.064809	0.01103	221.10	0.00	0.00	0.00000	0.000	1	0.00	0.00	1.62	-2.49	-1.62	1.38	0	0	0	0
122	121	0.000786	0.063023	0.00000	200.00	0.00	0.00	1.00000	0.000	1	0.00	0.00	-59.73	-8.32	59.76	10.49	0	0	0	0
121	178	0.008903	0.063604	0.11596	402.36	0.00	0.00	0.00000	0.000	1	0.00	0.00	125.72	1.89	-124.39	-4.62	0	0	0	0
187	121	0.001063	0.007593	0.01384	402.36	0.00	0.00	0.00000	0.000	1	0.00	0.00	244.67	1.60	-244.07	1.17	0	0	0	0
124	123	0.000329	0.017481	0.00000	400.00	0.00	0.00	1.00000	0.000	1	0.00	0.00	-277.61	-68.43	277.87	82.49	0	0	0	0
125	123	0.004480	0.104562	0.00000	170.00	0.00	0.00	1.00000	0.000	1	0.00	0.00	130.05	20.39	-129.33	-3.63	0	0	0	0
126	123	0.001480	0.066043	0.00000	170.00	0.00	0.00	1.00000	0.000	1	0.00	0.00	130.05	30.35	-129.81	-19.46	0	0	0	0
127	123	0.001000	0.031691	0.00000	170.00	0.00	0.00	1.00000	0.000	1	0.00	0.00	130.05	56.81	-129.86	-50.91	0	0	0	0
123	133	0.001459	0.010423	0.01900	402.36	0.00	0.00	0.00000	0.000	1	0.00	0.00	-1.63	-20.95	1.63	19.00	0	0	0	0
156	123	0.001117	0.007981	0.01455	402.36	0.00	0.00	0.00000	0.000	1	0.00	0.00	-28.34	5.05	28.35	-6.51	0	0	0	0
124	193	0.006577	0.045820	0.00749	221.10	0.00	0.00	0.00000	0.000	1	0.00	0.00	76.63	19.33	-76.22	-17.26	0	0	0	0
129	128	0.000753	0.044453	0.00000	250.00	0.00	0.00	1.00000	0.000	1	0.00	0.00	-149.19	-39.80	149.37	50.41	0	0	0	0
128	133	0.009554	0.068257	0.12444	402.36	0.00	0.00	0.00000	0.000	1	0.00	0.00	-66.85	-1.39	67.26	-8.67	0	0	0	0
130	144	0.022678	0.157988	0.02583	221.10	0.00	0.00	0.00000	0.000	1	0.00	0.00	11.79	4.00	-11.76	-6.38	0	0	0	0
134	133	0.000200	0.013328	0.00000	400.00	0.00	0.00	1.00000	0.000	1	0.00	0.00	-200.49	-30.28	200.57	35.56	0	0	0	0
135	133	0.000430	0.033512	0.00000	580.00	0.00	0.00	1.00000	0.000	1	0.00	0.00	216.77	53.47	-216.57	-38.03	0	0	0	0
136	133	0.000430	0.027478	0.00000	580.00	0.00	0.00	1.00000	0.000	1	0.00	0.00	196.42	61.49	-196.25	-50.73	0	0	0	0
156	133	0.001958	0.013985	0.02550	402.36	0.00	0.00	0.00000	0.000	1	0.00	0.00	-17.42	-12.89	17.43	10.28	0	0	0	0
134	140	0.010445	0.071357	0.01214	221.10	0.00	0.00	0.00000	0.000	1	0.00	0.00	41.65	12.74	-41.46	-12.67	0	0	0	0
134	186	0.014463	0.093412	0.01782	221.10	0.00	0.00	0.00000	0.000	1	0.00	0.00	66.83	0.28	-66.21	1.90	0	0	0	0
138	139	0.026477	0.184455	0.03015	221.10	0.00	0.00	0.00000	0.000	1	0.00	0.00	8.42	4.49	-8.40	-7.32	0	0	0	0
138	195	0.008728	0.056370	0.01075	221.10	0.00	0.00	0.00000	0.000	1	0.00	0.00	-11.72	-5.43	11.73	4.42	0	0	0	0
141	148	0.010190	0.065817	0.01256	221.10	0.00	0.00	0.00000	0.000	1	0.00	0.00	28.63	7.42	-28.54	-8.05	0	0	0	0
141	193	0.002896	0.018702	0.00357	221.10	0.00	0.00	0.00000	0.000	1	0.00	0.00	-25.35	-5.92	25.37	5.70	0	0	0	0
162	144	0.006962	0.048504	0.00793	221.10	0.00	0.00	0.00000	0.000	1	0.00	0.00	1.67	-3.34	-1.67	2.55	0	0	0	0
145	176	0.008799	0.060111	0.01023	221.10	0.00	0.00	0.00000	0.000	1	0.00	0.00	-16.11	-4.38	16.13	3.50	0	0	0	0
185	145	0.010839	0.075509	0.01234	221.10	0.00	0.00	0.00000	0.000	1	0.00	0.00	12.23	2.54	-12.22	-3.69	0	0	0	0
147	146	0.002500	0.101810	0.00000	130.60	0.00	0.00	1.00000	0.000	1	0.00	0.00	42.00	21.41	-41.95	-19.31	0	0	0	0
146	177	0.011064	0.077080	0.01260	221.10	0.00	0.00	0.00000	0.000	1	0.00	0.00	29.78	8.12	-29.68	-8.69	0	0	0	0
150	149	0.000412	0.020251	0.00000	400.00	0.00	0.00	1.00000	0.000	1	0.00	0.00	-182.76	-14.67	182.89	21.17	0	0	0	0
151	149	0.022670	0.625521	0.00000	20.00	0.00	0.00	1.00000	0.000	1	0.00	0.00	5.40	1.94	-5.39	-1.75	0	0	0	0
152	149	0.002490	0.141687	0.00000	100.00	0.00	0.00	1.00000	0.000	1	0.00	0.00	77.22	11.66	-77.08	-3.67	0	0	0	0
153	149	0.005490	0.184603	0.00000	100.00	0.00	0.00	1.00000	0.000	1	0.00	0.00	77.22	9.80	-76.91	0.54	0	0	0	0
154	149	0.002490	0.102940	0.00000	100.00	0.00	0.00	1.00000	0.000	1	0.00	0.00	77.22	13.47	-77.08	-7.62	0	0	0	0
155	149	0.002490	0.099835	0.00000	100.00	0.00	0.00	1.00000	0.000	1	0.00	0.00	77.22	13.71	-77.08	-8.04	0	0	0	0
185	150	0.013458	0.091934	0.01564	221.10	0.00	0.00	0.00000	0.000	1	0.00	0.00	-29.65	-7.51	29.78	6.71	0	0	0	0
194	150	0.003138	0.021435	0.00365	221.10	0.00	0.00	0.00000	0.000	1	0.00	0.00	-110.29	3.05	110.65	-0.93	0	0	0	0
157	156	0.000592	0.045654	0.00000	300.00	0.00	0.00	1.00000	0.000	1	0.00	0.00	-45.75	-6.89	45.76	7.83	0	0	0	0
161	160	0.001390	0.080288	0.00000	180.20	0.00	0.00	1.00000	0.000	1	0.00	0.00	0.00	0.00	0.00	0.00	0	0	0	0
160	181	0.004296	0.029345	0.00499	221.10	0.00	0.00	0.00000	0.000	1	0.00	0.00	-31.09	-8.32	31.13	8.11	0	0	0	0
164	163	0.008207	0.113010	0.00000	58.10	0.00	0.00	1.00000	0.000	1	0.00	0.00	0.00	0.00	0.00	0.00	0	0	0	0
165	163	0.007400	0.301657	0.00000	65.00	0.00	0.00	1.00000	0.000	1	0.00	0.00	0.00	0.00	0.00	0.00	0	0	0	0
166	163	0.016368	0.382075	0.00000	42.00	0.00	0.00	1.00000	0.000	1	0.00	0.00	0.00	0.00	0.00	0.00	0	0	0	0
167	163	0.010476	0.196499	0.00000	42.00	0.00	0.00	1.00000	0.000	1	0.00	0.00	2.82	4.78	-2.82	-4.72	0	0	0	0
168	163	0.018000	0.490983	0.00000	40.00	0.00	0.00	1.00000	0.000	1	0.00	0.00	0.00	0.00	0.00	0.00	0	0	0	0
169	163	0.016368	0.396417	0.00000	40.00	0.00	0.00	1.00000	0.000	1	0.00	0.00	0.00	0.00	0.00	0.00	0	0	0	0
170	163	0.016368	0.374902	0.00000	35.60	0.00	0.00	1.00000	0.000	1	0.00	0.00	2.82	4.78	-2.82	-4.67	0	0	0	0
163	179	0.005790	0.039557	0.00673	221.10	0.00	0.00	0.00000	0.000	1	0.00	0.00	-77.33	-3.32	77.67	4.93	0	0	0	0
171	190	0.009866	0.067400	0.01147	221.10	0.00	0.00	0.00000	0.000	1	0.00	0.00	18.95	-0.99	-18.92	0.07	0	0	0	0
195	171	0.011644	0.081116	0.01326	221.10	0.00	0.00	0.00000	0.000	1	0.00	0.00	31.56	2.02	-31.45	-2.57	0	0	0	0
180	172	0.015296	0.106558	0.01742	221.10	0.00	0.00	0.00000	0.000	1	0.00	0.00	-0.08	-1.28	0.08	-0.52	0	0	0	0
199	172	0.024005	0.155042	0.02958	221.10	0.00	0.00	0.00000	0.000	1	0.00	0.00	8.78	-1.01	-8.76	-1.95	0	0	0	0
173	174	0.015373	0.099293	0.01894	221.10	0.00	0.00	0.00000	0.000	1	0.00	0.00	-27.94	-4.98	28.06	3.80	0	0	0	0
173	175	0.008572	0.055363	0.01056	221.10	0.00	0.00	0.00000	0.000	1	0.00	0.00	13.88	0.98	-13.87	-1.95	0	0	0	0
174	188	0.017952	0.122640	0.02087	221.10	0.00	0.00	0.00000	0.000	1	0.00	0.00	-60.03	5.17	60.66	-3.07	0	0	0	0
179	178	0.000495	0.036157	0.00000	250.00	0.00	0.00	1.00000	0.000	1	0.00	0.00	-153.42	2.87	153.53	5.34	0	0	0	0
180	191	0.026393	0.183866	0.03006	221.10	0.00	0.00	0.00000	0.000	1	0.00	0.00	-20.35	-1.60	20.45	-0.81	0	0	0	0
180	199	0.012185	0.078698	0.01501	221.10	0.00	0.00	0.00000	0.000	1	0.00	0.00	-17.36	-2.11	17.40	0.78	0	0	0	0
182	181	0.010990	0.297746	0.00000	60.30	0.00	0.00	1.00000	0.000	1	0.00	0.00	17.50	8.16	-17.46	-7.13	0	0	0	0
183	181	0.004627	0.114254	0.00000	65.00	0.00	0.00	1.00000	0.000	1	0.00	0.00	26.60	12.40	-26.56	-11.47	0	0	0	0
181	194	0.004395	0.028384	0.00542	221.10	0.00	0.00	0.00000	0.000	1	0.00	0.00	-78.19	-17.72	78.46	18.94	0	0	0	0
188	187	0.001394	0.044762	0.00000	400.00	0.00	0.00	1.00000	0.000	1	0.00	0.00	-173.82	-8.66	174.22	21.54	0	0	0	0
189	187	0.000300	0.007815	0.00000	740.00	0.00	0.00	1.00000	0.000	1	0.00	0.00	569.13	56.23	-568.22	-32.60	0	0	0	0
196	195	0.002850	0.060038	0.00000	87.70	0.00	0.00	1.00000	0.000	1	0.00	0.00	0.00	0.00	0.00	0.00	0	0	0	0
197	195	0.002850	0.191484	0.00000	87.70	0.00	0.00	1.00000	0.000	1	0.00	0.00	0.00	0.00	0.00	0.00	0	0	0	0
];

%% bus names
mpc.bus_name = {
'CREVE COEUR 0';
'CREVE COEUR 1';
'ILLIOPOLIS 0';
'ILLIOPOLIS 1';
'PAXTON 2 0';
'PAXTON 2 1';
'PEORIA 9 0';
'PEORIA 9 1';
'PEORIA 8 0';
'PEORIA 8 1';
'LOVINGTON 0';
'LOVINGTON 1';
'LOVINGTON 2';
'DECATUR 3 0';
'DECATUR 3 1';
'DECATUR 3 2';
'MASON CITY 0';
'MASON CITY 1';
'MASON CITY 2';
'MASON CITY 3';
'MASON CITY 4';
'BETHANY 0';
'BETHANY 1';
'BETHANY 2';
'RANKIN 0';
'RANKIN 1';
'WINDSOR 0';
'WINDSOR 1';
'PEKIN 2 0';
'PEKIN 2 1';
'HEYWORTH 0';
'HEYWORTH 1';
'HEYWORTH 2';
'DECATUR 2 0';
'DECATUR 2 1';
'LINCOLN 0';
'LINCOLN 1';
'LINCOLN 2';
'SHERMAN 0';
'SHERMAN 1';
'URBANA 2 0';
'SPRINGFIELD 8 0';
'CARLOCK 0';
'PLEASANT PLAINS 0';
'LE ROY 0';
'LE ROY 1';
'DECATUR 1 0';
'RANTOUL 2 0';
'RANTOUL 2 1';
'RANTOUL 2 2';
'RANTOUL 2 3';
'RANTOUL 2 4';
'RANTOUL 2 5';
'MACON 0';
'ELLSWORTH 2 0';
'ELLSWORTH 2 1';
'MOUNT PULASKI 0';
'WAPELLA 0';
'ROANOKE 0';
'GREEN VALLEY 0';
'BLOOMINGTON 3 0';
'SPRINGFIELD 7 0';
'BEMENT 0';
'PAXTON 1 0';
'PAXTON 1 1';
'MOUNT ZION 0';
'MOUNT ZION 1';
'MOUNT ZION 2';
'MOUNT ZION 3';
'MOUNT ZION 4';
'MOUNT ZION 5';
'MOUNT ZION 6';
'MOUNT ZION 7';
'RANTOUL 1 0';
'BRIMFIELD 0';
'BRIMFIELD 1';
'BRIMFIELD 2';
'BRIMFIELD 3';
'BRIMFIELD 4';
'WELDON 0';
'GIBSON CITY 2 0';
'GIBSON CITY 2 1';
'MINIER 0';
'HUDSON 0';
'ATHENS 0';
'PEORIA HEIGHTS 0';
'SPRINGFIELD 6 0';
'SPRINGFIELD 6 1';
'CLINTON 3 0';
'CLINTON 3 1';
'CLINTON 3 2';
'CLINTON 3 3';
'TUSCOLA 2 0';
'TUSCOLA 2 1';
'KENNEY 0';
'MANSFIELD 0';
'MANITO 0';
'DUNLAP 0';
'DUNLAP 1';
'CHAMPAIGN 3 0';
'PEORIA 7 0';
'ELLSWORTH 1 0';
'ELLSWORTH 1 1';
'ELLSWORTH 1 2';
'ELLSWORTH 1 3';
'TOWANDA 0';
'BLOOMINGTON 2 0';
'PRINCEVILLE 0';
'DELAVAN 0';
'PEORIA 6 0';
'SAVOY 0';
'NORMAL 2 0';
'NORMAL 2 1';
'NORMAL 2 2';
'NORMAL 2 3';
'EAST PEORIA 0';
'EAST PEORIA 1';
'HANNA CITY 0';
'METAMORA 0';
'GREENVIEW 0';
'CLINTON 2 0';
'CLINTON 2 1';
'BARTONVILLE 0';
'BARTONVILLE 1';
'BARTONVILLE 2';
'BARTONVILLE 3';
'BARTONVILLE 4';
'NORMAL 1 0';
'NORMAL 1 1';
'LEXINGTON 0';
'PEORIA 5 0';
'MORTON 0';
'PEKIN 1 0';
'PEKIN 1 1';
'PEKIN 1 2';
'PEKIN 1 3';
'NIANTIC 0';
'COLFAX 0';
'EL PASO 0';
'TREMONT 0';
'PEORIA 4 0';
'PEORIA 3 0';
'CHAMPAIGN 2 0';
'EUREKA 0';
'CHATHAM 0';
'HOPEDALE 2 0';
'HOPEDALE 2 1';
'WASHINGTON 0';
'SPRINGFIELD 5 0';
'SPRINGFIELD 5 1';
'SPRINGFIELD 5 2';
'SPRINGFIELD 5 3';
'SPRINGFIELD 5 4';
'SPRINGFIELD 5 5';
'SPRINGFIELD 5 6';
'PEORIA 2 0';
'PEORIA 2 1';
'MT ZION 0';
'BUFFALO 0';
'SPRINGFIELD 4 0';
'SPRINGFIELD 4 1';
'CONGERVILLE 0';
'CHAMPAIGN 1 0';
'CHAMPAIGN 1 1';
'CHAMPAIGN 1 2';
'CHAMPAIGN 1 3';
'CHAMPAIGN 1 4';
'CHAMPAIGN 1 5';
'CHAMPAIGN 1 6';
'CHAMPAIGN 1 7';
'FISHER 0';
'HOMER 0';
'TUSCOLA 1 0';
'WHITE HEATH 0';
'TOLONO 0';
'SPRINGFIELD 3 0';
'MACKINAW 0';
'URBANA 1 0';
'URBANA 1 1';
'SAINT JOSEPH 0';
'SPRINGFIELD 2 0';
'SPRINGFIELD 2 1';
'SPRINGFIELD 2 2';
'MONTICELLO 0';
'AUBURN 0';
'HOPEDALE 1 0';
'CLINTON 1 0';
'CLINTON 1 1';
'CLINTON 1 2';
'MAHOMET 0';
'VILLA GROVE 0';
'BLOOMINGTON 1 0';
'PEORIA 1 0';
'SPRINGFIELD 1 0';
'GIBSON CITY 1 0';
'GIBSON CITY 1 1';
'GIBSON CITY 1 2';
'MAPLETON 0';
'GIFFORD 0';
'PETERSBURG 0';
};
